https://github.com/learn-co-curriculum/phase-4-rails-routing-basics-readme # routes
https://github.com/learn-co-curriculum/phase-4-rails-routing-basics-lab #

https://github.com/learn-co-curriculum/phase-3-rails-url-helpers-readme # route helper
https://github.com/learn-co-curriculum/rails-static-request-readme # static route
https://github.com/learn-co-curriculum/phase-4-rails-route-params-readme # dynamic route
https://github.com/learn-co-curriculum/phase-4-rails-route-params-lab #
https://github.com/learn-co-curriculum/phase-3-rails-dynamic-request-readme

https://github.com/learn-co-curriculum/namespaced-routes-reading # scope and namespace
https://github.com/learn-co-curriculum/namespaced-routes-lab

https://github.com/learn-co-curriculum/phase-4-rails-resources-create # create
https://github.com/learn-co-curriculum/phase-4-rails-resources-index-show # read
https://github.com/learn-co-curriculum/phase-4-rails-resources-update # update
https://github.com/learn-co-curriculum/phase-4-rails-resources-destroy # delete
https://github.com/learn-co-curriculum/phase-4-rails-route-params-readme
https://github.com/learn-co-curriculum/routing-nested-resources-reading
https://github.com/learn-co-curriculum/routing-nested-resources-lab
https://github.com/learn-co-curriculum/phase-4-nested-resource-routing
https://github.com/learn-co-curriculum/phase-4-nested-resource-routing-lab
https://github.com/learn-co-curriculum/modification-nested-routes-reading
https://github.com/learn-co-curriculum/phase-3-modification-nested-routes-lab
https://github.com/learn-co-curriculum/phrg-rails-generators-readme#resource-generators # resource generator
